LAMMPS (23 Jun 2022 - Update 1)
# pure bulk water system
# Written by Simon Gravelle
# My personal page : https://simongravelle.github.io/
# My Github account: https://github.com/simongravelle/
# LAMMPS tutorials for beginners: https://lammpstutorials.github.io/

variable f0 equal 2 # kcal/mol/A # 1 kcal/mol/A = 67.2 pN

units real
atom_style full
bond_style harmonic
angle_style charmm
dihedral_style charmm
pair_style lj/cut/tip4p/long 1 2 1 1 0.1546 12.0
kspace_style pppm/tip4p 1.0e-4

special_bonds lj 0.0 0.0 0.5

read_data ../mergePEGH2O/mix.data
Reading data file ...
  orthogonal box = (-20.074217 -8.1231461 -8.1231461) to (20.074217 8.1231461 8.1231461)
  reading atoms ...
  1053 atoms
  reading velocities ...
  1053 velocities
  scanning bonds ...
  scanning angles ...
  scanning dihedrals ...
  reading bonds ...
  723 bonds
  reading angles ...
  447 angles
  reading dihedrals ...
  74 dihedrals
Finding 1-2 1-3 1-4 neighbors ...
     4 = max # of 1-2 neighbors
     6 = max # of 1-3 neighbors
    12 = max # of 1-4 neighbors
    14 = max # of special neighbors
include ../PARM.lammps
# Mass

mass 		1 15.9994 # H2O O
mass 		2 1.008 # H2O H
mass 		3 12.011 # CC32A
mass 		4 15.9994 # OC30A
mass 		5 1.008 # HCA2
mass 		6 15.9994 # OC311
mass 		7 1.008 # HCP1

# Pair Coeff

pair_coeff 	1 1 0.185199 3.1589
pair_coeff 	2 2 0.0 0.0
pair_coeff 	3 3 0.056 3.58141
pair_coeff 	4 4 0.100 2.93997
pair_coeff 	5 5 0.035 2.38761
pair_coeff 	6 6 0.192 3.14487
pair_coeff 	7 7 0.046 0.40001

# Bond coeff

bond_coeff 	1 0 0.9572
bond_coeff 	2 222.35 1.5300
bond_coeff 	3 308.79 1.1111
bond_coeff 	4 359.76 1.1415
bond_coeff 	5 427.715 1.1420
bond_coeff 	6 544.635 0.9600

# Angle coeff

angle_coeff 	1 0 104.52 0 0
angle_coeff	2 50.0000 109.0000 0.0000 0.0000
angle_coeff	3 26.5000 110.1000 22.5300 2.179
angle_coeff	4 45.0000 111.5000 0.0000 0.0000
angle_coeff	5 13.0258 109.4000 0.0000 0.0000
angle_coeff	6 35.5000 109.0000 5.4000 1.802
angle_coeff	7 55.0000 108.8900 0.0000 0.0000
angle_coeff	8 75.7000 110.1000 0.0000 0.0000
angle_coeff	9 95.0000 109.7000 0.0000 0.0000

# Dihedral coeff
# weighting factor put to 0, possibly wrong

dihedral_coeff	1 0.57 1 0 0
dihedral_coeff	2 0.29 2 0 0
dihedral_coeff	3 0.43 3 0 0
dihedral_coeff	4 0.59 1 180 0
dihedral_coeff	5 1.16 2 0 0
dihedral_coeff	6 0.12 1 0 0
dihedral_coeff	7 0.42 2 0 0
dihedral_coeff	8 0.29 3 0 0
dihedral_coeff	9 2.87 1 180 0
dihedral_coeff	10 0.03 2 0 0
dihedral_coeff	11 0.23 3 0 0
dihedral_coeff	12 1.36 1 180 0
dihedral_coeff	13 0.16 2 0 0
dihedral_coeff	14 1.01 3 0 0

group H2O type 1 2
987 atoms in group H2O
group PEG type 3 4 5 6 7
66 atoms in group PEG
group oxygen_end1 id 65
1 atoms in group oxygen_end1
group oxygen_end2 id 4
1 atoms in group oxygen_end2

dump mydmp all atom 1000 dump.lammpstrj
# write_dump all atom dump.lammpstrj
# dump myxtc xtc atom 1000 dump.xtc

timestep 1
fix myshk H2O shake 1.0e-4 200 0 b 1 a 1
       0 = # of size 2 clusters
       0 = # of size 3 clusters
       0 = # of size 4 clusters
     329 = # of frozen angles
  find clusters CPU = 0.000 seconds
fix mynvt all nvt temp 300 300 100

variable mytemp equal temp
fix myat1 all ave/time 10 10 100 v_mytemp file temperature.dat
variable x1 equal xcm(oxygen_end1,x)
variable x2 equal xcm(oxygen_end2,x)
variable delta_x equal abs(v_x1-v_x2)
fix myat2 all ave/time 10 10 100 v_delta_x file end-to-end-distance.dat
thermo 10000

run 100000
PPPM initialization ...
  extracting TIP4P info from pair style
  G vector (1/distance) = 0.22755476
  grid = 16 9 9
  stencil order = 5
  estimated absolute RMS force accuracy = 0.025819204
  estimated relative force accuracy = 7.7753767e-05
  3d grid and FFT values/proc = 2304 432
Generated 21 of 21 mixed pair_coeff terms from geometric mixing rule
  update every 1 steps, delay 10 steps, check yes
Step          Temp          E_pair         E_mol          TotEng         Press
0   303.02824     -3171.4329      89.633856     -2428.7351     -696.00388
Averages over the last 6 of 11 rows, steps 50000 to 100000:
Temp E_pair E_mol TotEng Press
296.831 -3164.91 89.0667 -2436.13 619.647
Loop time of 437.226 on 4 procs for 100000 steps with 1053 atoms

fix myaf1 oxygen_end1 addforce 2 0 0
fix myaf2 oxygen_end2 addforce -2 0 0

run 200000
PPPM initialization ...
  extracting TIP4P info from pair style
  G vector (1/distance) = 0.22755476
  grid = 16 9 9
  stencil order = 5
  estimated absolute RMS force accuracy = 0.025819204
  estimated relative force accuracy = 7.7753767e-05
  3d grid and FFT values/proc = 2304 432
Generated 21 of 21 mixed pair_coeff terms from geometric mixing rule
Step          Temp          E_pair         E_mol          TotEng         Press
100000   311.2607      -3162.452       88.049342     -2403.5968      2895.677
Averages over the last 11 of 21 rows, steps 200000 to 300000:
Temp E_pair E_mol TotEng Press
298.522 -3140.47 96.2693 -2400.85 413.032
Loop time of 1125.36 on 4 procs for 200000 steps with 1053 atoms
