LAMMPS (23 Jun 2022)
# pure bulk water system
# Written by Simon Gravelle
# My personal page : https://simongravelle.github.io/
# My Github account: https://github.com/simongravelle/
# LAMMPS tutorials for beginners: https://lammpstutorials.github.io/

units real
atom_style full
bond_style harmonic
angle_style charmm
dihedral_style charmm
pair_style lj/cut/tip4p/long 1 2 1 1 0.1546 12.0
kspace_style pppm/tip4p 1.0e-4

region box block -40 40 -15 15 -15 15
create_box 7 box bond/types 6 angle/types 9 dihedral/types 14 extra/bond/per/atom 2 extra/angle/per/atom 1 extra/special/per/atom 2
Created orthogonal box = (-40 -15 -15) to (40 15 15)

include ../PARM.lammps
# Mass

mass 		1 15.9994 # H2O O
mass 		2 1.008 # H2O H
mass 		3 12.011 # CC32A
mass 		4 15.9994 # OC30A
mass 		5 1.008 # HCA2
mass 		6 15.9994 # OC311
mass 		7 1.008 # HCP1

# Pair Coeff

pair_coeff 	1 1 0.185199 3.1589
pair_coeff 	2 2 0.0 0.0
pair_coeff 	3 3 0.056 3.58141
pair_coeff 	4 4 0.100 2.93997
pair_coeff 	5 5 0.035 2.38761
pair_coeff 	6 6 0.192 3.14487
pair_coeff 	7 7 0.046 0.40001

# Bond coeff

bond_coeff 	1 0 0.9572
bond_coeff 	2 222.35 1.5300
bond_coeff 	3 308.79 1.1111
bond_coeff 	4 359.76 1.1415
bond_coeff 	5 427.715 1.1420
bond_coeff 	6 544.635 0.9600

# Angle coeff

angle_coeff 	1 0 104.52 0 0
angle_coeff	2 50.0000 109.0000 0.0000 0.0000
angle_coeff	3 26.5000 110.1000 22.5300 2.179
angle_coeff	4 45.0000 111.5000 0.0000 0.0000
angle_coeff	5 13.0258 109.4000 0.0000 0.0000
angle_coeff	6 35.5000 109.0000 5.4000 1.802
angle_coeff	7 55.0000 108.8900 0.0000 0.0000
angle_coeff	8 75.7000 110.1000 0.0000 0.0000
angle_coeff	9 95.0000 109.7000 0.0000 0.0000

# Dihedral coeff
# weighting factor put to 0, possibly wrong

dihedral_coeff	1 0.57 1 0 0
dihedral_coeff	2 0.29 2 0 0
dihedral_coeff	3 0.43 3 0 0
dihedral_coeff	4 0.59 1 180 0
dihedral_coeff	5 1.16 2 0 0
dihedral_coeff	6 0.12 1 0 0
dihedral_coeff	7 0.42 2 0 0
dihedral_coeff	8 0.29 3 0 0
dihedral_coeff	9 2.87 1 180 0
dihedral_coeff	10 0.03 2 0 0
dihedral_coeff	11 0.23 3 0 0
dihedral_coeff	12 1.36 1 180 0
dihedral_coeff	13 0.16 2 0 0
dihedral_coeff	14 1.01 3 0 0

molecule h2omol H2OTip4p.txt
Read molecule template h2omol:
  1 molecules
  0 fragments
  3 atoms with max type 2
  2 bonds with max type 1
  1 angles with max type 1
  0 dihedrals with max type 0
  0 impropers with max type 0
create_atoms 0 random 500 456415 NULL mol h2omol 454756
Created 1500 atoms
group H2O type 1 2
1500 atoms in group H2O
delete_atoms overlap 2 H2O H2O mol yes
System init for delete_atoms ...
PPPM initialization ...
  extracting TIP4P info from pair style
  G vector (1/distance) = 0.21686545
  grid = 27 15 15
  stencil order = 5
  estimated absolute RMS force accuracy = 0.024887769
  estimated relative force accuracy = 7.4948776e-05
  3d grid and FFT values/proc = 6292 1620
Generated 21 of 21 mixed pair_coeff terms from geometric mixing rule
  update every 1 steps, delay 10 steps, check yes
Deleted 414 atoms, new total = 1086
Deleted 276 bonds, new total = 724
Deleted 138 angles, new total = 362

fix myshk H2O shake 1.0e-4 200 0 b 1 a 1 mol h2omol
       0 = # of size 2 clusters
       0 = # of size 3 clusters
       0 = # of size 4 clusters
     362 = # of frozen angles
  find clusters CPU = 0.000 seconds
fix mynpt all npt temp 300 300 100 iso 1 1 1000

dump mydmp all atom 10 dump.lammpstrj
variable mytemp equal temp
variable myvol equal vol
fix myat1 all ave/time 10 10 100 v_mytemp file temperature.dat
fix myat2 all ave/time 10 10 100 v_myvol file volume.dat

timestep 1.0
thermo 1000
run 20000
PPPM initialization ...
  extracting TIP4P info from pair style
  G vector (1/distance) = 0.21686535
  grid = 27 15 15
  stencil order = 5
  estimated absolute RMS force accuracy = 0.02117658
  estimated relative force accuracy = 6.3772642e-05
  3d grid and FFT values/proc = 6292 1620
Generated 21 of 21 mixed pair_coeff terms from geometric mixing rule
  update every 1 steps, delay 10 steps, check yes
Step          Temp          E_pair         E_mol          TotEng         Press          Volume
0   0              237.94548      0              237.94548      1282.6023      72000
Averages over the last 11 of 21 rows, steps 10000 to 20000:
Temp E_pair E_mol TotEng Press Volume
299.97 -3277.03 0 -2630.55 -0.932236 14279.4
Loop time of 137.761 on 4 procs for 20000 steps with 1086 atoms

write_data H2O.data
System init for write_data ...
PPPM initialization ...
  extracting TIP4P info from pair style
  G vector (1/distance) = 0.23017985
  grid = 18 9 9
  stencil order = 5
  estimated absolute RMS force accuracy = 0.022691941
  estimated relative force accuracy = 6.8336107e-05
  3d grid and FFT values/proc = 2560 486
Generated 21 of 21 mixed pair_coeff terms from geometric mixing rule
